<routes>
        <vType id="typeCar" accel="0.8" decel="4.5" sigma="0.5" length="5" minGap="2.5" maxSpeed="16.67" guiShape="passenger"/>

        <route id="NS" edges="n2A A2s" />
        <route id="WE" edges="w2A A2e" />
        <route id="SN" edges="s2A A2n" />
        <route id="EW" edges="e2A A2w" />
    <vehicle id="car_0" type="typeCar" route="NS" depart="0"/>
    <vehicle id="car_1" type="typeCar" route="WE" depart="0"/>
    <vehicle id="car_2" type="typeCar" route="EW" depart="0"/>
    <vehicle id="car_3" type="typeCar" route="WE" depart="1"/>
    <vehicle id="car_4" type="typeCar" route="EW" depart="1"/>
    <vehicle id="car_5" type="typeCar" route="WE" depart="2"/>
    <vehicle id="car_6" type="typeCar" route="EW" depart="2"/>
    <vehicle id="car_7" type="typeCar" route="WE" depart="3"/>
    <vehicle id="car_8" type="typeCar" route="EW" depart="3"/>
    <vehicle id="car_9" type="typeCar" route="WE" depart="4"/>
    <vehicle id="car_10" type="typeCar" route="EW" depart="4"/>
    <vehicle id="car_11" type="typeCar" route="WE" depart="5"/>
    <vehicle id="car_12" type="typeCar" route="EW" depart="5"/>
    <vehicle id="car_13" type="typeCar" route="WE" depart="6"/>
    <vehicle id="car_14" type="typeCar" route="EW" depart="6"/>
    <vehicle id="car_15" type="typeCar" route="WE" depart="7"/>
    <vehicle id="car_16" type="typeCar" route="WE" depart="8"/>
    <vehicle id="car_17" type="typeCar" route="WE" depart="9"/>
    <vehicle id="car_18" type="typeCar" route="EW" depart="9"/>
    <vehicle id="car_19" type="typeCar" route="EW" depart="10"/>
    <vehicle id="car_20" type="typeCar" route="WE" depart="11"/>
    <vehicle id="car_21" type="typeCar" route="EW" depart="11"/>
    <vehicle id="car_22" type="typeCar" route="WE" depart="12"/>
    <vehicle id="car_23" type="typeCar" route="EW" depart="13"/>
    <vehicle id="car_24" type="typeCar" route="WE" depart="14"/>
    <vehicle id="car_25" type="typeCar" route="SN" depart="15"/>
    <vehicle id="car_26" type="typeCar" route="WE" depart="15"/>
    <vehicle id="car_27" type="typeCar" route="WE" depart="16"/>
    <vehicle id="car_28" type="typeCar" route="EW" depart="16"/>
    <vehicle id="car_29" type="typeCar" route="WE" depart="17"/>
    <vehicle id="car_30" type="typeCar" route="EW" depart="17"/>
    <vehicle id="car_31" type="typeCar" route="WE" depart="18"/>
    <vehicle id="car_32" type="typeCar" route="EW" depart="18"/>
    <vehicle id="car_33" type="typeCar" route="WE" depart="19"/>
    <vehicle id="car_34" type="typeCar" route="EW" depart="19"/>
    <vehicle id="car_35" type="typeCar" route="WE" depart="20"/>
    <vehicle id="car_36" type="typeCar" route="EW" depart="20"/>
    <vehicle id="car_37" type="typeCar" route="WE" depart="21"/>
    <vehicle id="car_38" type="typeCar" route="EW" depart="21"/>
    <vehicle id="car_39" type="typeCar" route="WE" depart="22"/>
    <vehicle id="car_40" type="typeCar" route="EW" depart="22"/>
    <vehicle id="car_41" type="typeCar" route="WE" depart="23"/>
    <vehicle id="car_42" type="typeCar" route="EW" depart="23"/>
    <vehicle id="car_43" type="typeCar" route="WE" depart="24"/>
    <vehicle id="car_44" type="typeCar" route="EW" depart="24"/>
    <vehicle id="car_45" type="typeCar" route="WE" depart="25"/>
    <vehicle id="car_46" type="typeCar" route="EW" depart="25"/>
    <vehicle id="car_47" type="typeCar" route="WE" depart="26"/>
    <vehicle id="car_48" type="typeCar" route="EW" depart="26"/>
    <vehicle id="car_49" type="typeCar" route="WE" depart="27"/>
    <vehicle id="car_50" type="typeCar" route="EW" depart="27"/>
    <vehicle id="car_51" type="typeCar" route="WE" depart="28"/>
    <vehicle id="car_52" type="typeCar" route="EW" depart="28"/>
    <vehicle id="car_53" type="typeCar" route="WE" depart="29"/>
    <vehicle id="car_54" type="typeCar" route="EW" depart="29"/>
    <vehicle id="car_55" type="typeCar" route="WE" depart="30"/>
    <vehicle id="car_56" type="typeCar" route="EW" depart="30"/>
    <vehicle id="car_57" type="typeCar" route="WE" depart="31"/>
    <vehicle id="car_58" type="typeCar" route="EW" depart="31"/>
    <vehicle id="car_59" type="typeCar" route="EW" depart="32"/>
    <vehicle id="car_60" type="typeCar" route="WE" depart="33"/>
    <vehicle id="car_61" type="typeCar" route="EW" depart="33"/>
    <vehicle id="car_62" type="typeCar" route="WE" depart="34"/>
    <vehicle id="car_63" type="typeCar" route="EW" depart="34"/>
    <vehicle id="car_64" type="typeCar" route="WE" depart="35"/>
    <vehicle id="car_65" type="typeCar" route="EW" depart="35"/>
    <vehicle id="car_66" type="typeCar" route="WE" depart="36"/>
    <vehicle id="car_67" type="typeCar" route="EW" depart="36"/>
    <vehicle id="car_68" type="typeCar" route="EW" depart="37"/>
    <vehicle id="car_69" type="typeCar" route="EW" depart="38"/>
    <vehicle id="car_70" type="typeCar" route="WE" depart="39"/>
    <vehicle id="car_71" type="typeCar" route="WE" depart="40"/>
    <vehicle id="car_72" type="typeCar" route="EW" depart="40"/>
    <vehicle id="car_73" type="typeCar" route="WE" depart="41"/>
    <vehicle id="car_74" type="typeCar" route="WE" depart="42"/>
    <vehicle id="car_75" type="typeCar" route="EW" depart="42"/>
    <vehicle id="car_76" type="typeCar" route="WE" depart="43"/>
    <vehicle id="car_77" type="typeCar" route="NS" depart="44"/>
    <vehicle id="car_78" type="typeCar" route="WE" depart="44"/>
    <vehicle id="car_79" type="typeCar" route="EW" depart="44"/>
    <vehicle id="car_80" type="typeCar" route="WE" depart="46"/>
    <vehicle id="car_81" type="typeCar" route="WE" depart="47"/>
    <vehicle id="car_82" type="typeCar" route="EW" depart="47"/>
    <vehicle id="car_83" type="typeCar" route="WE" depart="48"/>
    <vehicle id="car_84" type="typeCar" route="EW" depart="48"/>
    <vehicle id="car_85" type="typeCar" route="WE" depart="49"/>
    <vehicle id="car_86" type="typeCar" route="EW" depart="49"/>
    <vehicle id="car_87" type="typeCar" route="WE" depart="50"/>
    <vehicle id="car_88" type="typeCar" route="EW" depart="50"/>
    <vehicle id="car_89" type="typeCar" route="WE" depart="51"/>
    <vehicle id="car_90" type="typeCar" route="EW" depart="51"/>
    <vehicle id="car_91" type="typeCar" route="WE" depart="52"/>
    <vehicle id="car_92" type="typeCar" route="EW" depart="52"/>
    <vehicle id="car_93" type="typeCar" route="NS" depart="53"/>
    <vehicle id="car_94" type="typeCar" route="EW" depart="53"/>
    <vehicle id="car_95" type="typeCar" route="WE" depart="54"/>
    <vehicle id="car_96" type="typeCar" route="EW" depart="55"/>
    <vehicle id="car_97" type="typeCar" route="WE" depart="56"/>
    <vehicle id="car_98" type="typeCar" route="EW" depart="56"/>
    <vehicle id="car_99" type="typeCar" route="WE" depart="57"/>
    <vehicle id="car_100" type="typeCar" route="EW" depart="57"/>
    <vehicle id="car_101" type="typeCar" route="WE" depart="58"/>
    <vehicle id="car_102" type="typeCar" route="EW" depart="58"/>
    <vehicle id="car_103" type="typeCar" route="NS" depart="59"/>
    <vehicle id="car_104" type="typeCar" route="EW" depart="59"/>
    <vehicle id="car_105" type="typeCar" route="WE" depart="60"/>
    <vehicle id="car_106" type="typeCar" route="EW" depart="60"/>
    <vehicle id="car_107" type="typeCar" route="WE" depart="61"/>
    <vehicle id="car_108" type="typeCar" route="EW" depart="61"/>
    <vehicle id="car_109" type="typeCar" route="WE" depart="62"/>
    <vehicle id="car_110" type="typeCar" route="EW" depart="62"/>
    <vehicle id="car_111" type="typeCar" route="EW" depart="63"/>
    <vehicle id="car_112" type="typeCar" route="WE" depart="64"/>
    <vehicle id="car_113" type="typeCar" route="EW" depart="64"/>
    <vehicle id="car_114" type="typeCar" route="WE" depart="65"/>
    <vehicle id="car_115" type="typeCar" route="EW" depart="65"/>
    <vehicle id="car_116" type="typeCar" route="WE" depart="66"/>
    <vehicle id="car_117" type="typeCar" route="EW" depart="66"/>
    <vehicle id="car_118" type="typeCar" route="WE" depart="67"/>
    <vehicle id="car_119" type="typeCar" route="EW" depart="67"/>
    <vehicle id="car_120" type="typeCar" route="WE" depart="68"/>
    <vehicle id="car_121" type="typeCar" route="EW" depart="68"/>
    <vehicle id="car_122" type="typeCar" route="WE" depart="69"/>
    <vehicle id="car_123" type="typeCar" route="EW" depart="69"/>
    <vehicle id="car_124" type="typeCar" route="WE" depart="70"/>
    <vehicle id="car_125" type="typeCar" route="EW" depart="70"/>
    <vehicle id="car_126" type="typeCar" route="WE" depart="71"/>
    <vehicle id="car_127" type="typeCar" route="EW" depart="71"/>
    <vehicle id="car_128" type="typeCar" route="WE" depart="72"/>
    <vehicle id="car_129" type="typeCar" route="EW" depart="72"/>
    <vehicle id="car_130" type="typeCar" route="WE" depart="73"/>
    <vehicle id="car_131" type="typeCar" route="EW" depart="73"/>
    <vehicle id="car_132" type="typeCar" route="SN" depart="74"/>
    <vehicle id="car_133" type="typeCar" route="WE" depart="74"/>
    <vehicle id="car_134" type="typeCar" route="EW" depart="74"/>
    <vehicle id="car_135" type="typeCar" route="WE" depart="75"/>
    <vehicle id="car_136" type="typeCar" route="EW" depart="75"/>
    <vehicle id="car_137" type="typeCar" route="WE" depart="76"/>
    <vehicle id="car_138" type="typeCar" route="EW" depart="76"/>
    <vehicle id="car_139" type="typeCar" route="WE" depart="77"/>
    <vehicle id="car_140" type="typeCar" route="EW" depart="77"/>
    <vehicle id="car_141" type="typeCar" route="WE" depart="78"/>
    <vehicle id="car_142" type="typeCar" route="WE" depart="79"/>
    <vehicle id="car_143" type="typeCar" route="EW" depart="79"/>
    <vehicle id="car_144" type="typeCar" route="EW" depart="80"/>
    <vehicle id="car_145" type="typeCar" route="WE" depart="81"/>
    <vehicle id="car_146" type="typeCar" route="WE" depart="83"/>
    <vehicle id="car_147" type="typeCar" route="EW" depart="83"/>
    <vehicle id="car_148" type="typeCar" route="WE" depart="84"/>
    <vehicle id="car_149" type="typeCar" route="EW" depart="84"/>
    <vehicle id="car_150" type="typeCar" route="SN" depart="85"/>
    <vehicle id="car_151" type="typeCar" route="WE" depart="85"/>
    <vehicle id="car_152" type="typeCar" route="EW" depart="86"/>
    <vehicle id="car_153" type="typeCar" route="WE" depart="87"/>
    <vehicle id="car_154" type="typeCar" route="EW" depart="87"/>
    <vehicle id="car_155" type="typeCar" route="WE" depart="88"/>
    <vehicle id="car_156" type="typeCar" route="WE" depart="89"/>
    <vehicle id="car_157" type="typeCar" route="EW" depart="89"/>
    <vehicle id="car_158" type="typeCar" route="WE" depart="90"/>
    <vehicle id="car_159" type="typeCar" route="EW" depart="90"/>
    <vehicle id="car_160" type="typeCar" route="NS" depart="91"/>
    <vehicle id="car_161" type="typeCar" route="WE" depart="91"/>
    <vehicle id="car_162" type="typeCar" route="EW" depart="91"/>
    <vehicle id="car_163" type="typeCar" route="WE" depart="92"/>
    <vehicle id="car_164" type="typeCar" route="EW" depart="92"/>
    <vehicle id="car_165" type="typeCar" route="WE" depart="93"/>
    <vehicle id="car_166" type="typeCar" route="EW" depart="93"/>
    <vehicle id="car_167" type="typeCar" route="WE" depart="94"/>
    <vehicle id="car_168" type="typeCar" route="EW" depart="94"/>
    <vehicle id="car_169" type="typeCar" route="SN" depart="95"/>
    <vehicle id="car_170" type="typeCar" route="WE" depart="95"/>
    <vehicle id="car_171" type="typeCar" route="WE" depart="96"/>
    <vehicle id="car_172" type="typeCar" route="EW" depart="96"/>
    <vehicle id="car_173" type="typeCar" route="WE" depart="97"/>
    <vehicle id="car_174" type="typeCar" route="EW" depart="97"/>
    <vehicle id="car_175" type="typeCar" route="WE" depart="98"/>
    <vehicle id="car_176" type="typeCar" route="EW" depart="98"/>
    <vehicle id="car_177" type="typeCar" route="WE" depart="99"/>
    <vehicle id="car_178" type="typeCar" route="EW" depart="99"/>
    <vehicle id="car_179" type="typeCar" route="WE" depart="100"/>
    <vehicle id="car_180" type="typeCar" route="EW" depart="100"/>
    <vehicle id="car_181" type="typeCar" route="WE" depart="101"/>
    <vehicle id="car_182" type="typeCar" route="EW" depart="101"/>
    <vehicle id="car_183" type="typeCar" route="WE" depart="102"/>
    <vehicle id="car_184" type="typeCar" route="EW" depart="102"/>
    <vehicle id="car_185" type="typeCar" route="NS" depart="103"/>
    <vehicle id="car_186" type="typeCar" route="WE" depart="103"/>
    <vehicle id="car_187" type="typeCar" route="EW" depart="103"/>
    <vehicle id="car_188" type="typeCar" route="WE" depart="104"/>
    <vehicle id="car_189" type="typeCar" route="EW" depart="104"/>
    <vehicle id="car_190" type="typeCar" route="WE" depart="105"/>
    <vehicle id="car_191" type="typeCar" route="EW" depart="105"/>
    <vehicle id="car_192" type="typeCar" route="WE" depart="106"/>
    <vehicle id="car_193" type="typeCar" route="EW" depart="106"/>
    <vehicle id="car_194" type="typeCar" route="NS" depart="107"/>
    <vehicle id="car_195" type="typeCar" route="EW" depart="107"/>
    <vehicle id="car_196" type="typeCar" route="WE" depart="108"/>
    <vehicle id="car_197" type="typeCar" route="EW" depart="108"/>
    <vehicle id="car_198" type="typeCar" route="WE" depart="109"/>
    <vehicle id="car_199" type="typeCar" route="EW" depart="109"/>
    <vehicle id="car_200" type="typeCar" route="WE" depart="110"/>
    <vehicle id="car_201" type="typeCar" route="EW" depart="110"/>
    <vehicle id="car_202" type="typeCar" route="WE" depart="111"/>
    <vehicle id="car_203" type="typeCar" route="EW" depart="111"/>
    <vehicle id="car_204" type="typeCar" route="NS" depart="112"/>
    <vehicle id="car_205" type="typeCar" route="WE" depart="112"/>
    <vehicle id="car_206" type="typeCar" route="WE" depart="113"/>
    <vehicle id="car_207" type="typeCar" route="EW" depart="113"/>
    <vehicle id="car_208" type="typeCar" route="SN" depart="114"/>
    <vehicle id="car_209" type="typeCar" route="WE" depart="114"/>
    <vehicle id="car_210" type="typeCar" route="EW" depart="114"/>
    <vehicle id="car_211" type="typeCar" route="WE" depart="115"/>
    <vehicle id="car_212" type="typeCar" route="EW" depart="115"/>
    <vehicle id="car_213" type="typeCar" route="NS" depart="116"/>
    <vehicle id="car_214" type="typeCar" route="WE" depart="116"/>
    <vehicle id="car_215" type="typeCar" route="EW" depart="116"/>
    <vehicle id="car_216" type="typeCar" route="WE" depart="117"/>
    <vehicle id="car_217" type="typeCar" route="EW" depart="117"/>
    <vehicle id="car_218" type="typeCar" route="WE" depart="118"/>
    <vehicle id="car_219" type="typeCar" route="EW" depart="118"/>
    <vehicle id="car_220" type="typeCar" route="WE" depart="119"/>
    <vehicle id="car_221" type="typeCar" route="WE" depart="120"/>
    <vehicle id="car_222" type="typeCar" route="WE" depart="121"/>
    <vehicle id="car_223" type="typeCar" route="EW" depart="121"/>
    <vehicle id="car_224" type="typeCar" route="WE" depart="122"/>
    <vehicle id="car_225" type="typeCar" route="EW" depart="122"/>
    <vehicle id="car_226" type="typeCar" route="WE" depart="123"/>
    <vehicle id="car_227" type="typeCar" route="WE" depart="124"/>
    <vehicle id="car_228" type="typeCar" route="EW" depart="124"/>
    <vehicle id="car_229" type="typeCar" route="WE" depart="125"/>
    <vehicle id="car_230" type="typeCar" route="EW" depart="125"/>
    <vehicle id="car_231" type="typeCar" route="WE" depart="126"/>
    <vehicle id="car_232" type="typeCar" route="EW" depart="126"/>
    <vehicle id="car_233" type="typeCar" route="WE" depart="127"/>
    <vehicle id="car_234" type="typeCar" route="EW" depart="127"/>
    <vehicle id="car_235" type="typeCar" route="WE" depart="128"/>
    <vehicle id="car_236" type="typeCar" route="EW" depart="128"/>
    <vehicle id="car_237" type="typeCar" route="WE" depart="129"/>
    <vehicle id="car_238" type="typeCar" route="EW" depart="129"/>
    <vehicle id="car_239" type="typeCar" route="NS" depart="130"/>
    <vehicle id="car_240" type="typeCar" route="SN" depart="130"/>
    <vehicle id="car_241" type="typeCar" route="WE" depart="130"/>
    <vehicle id="car_242" type="typeCar" route="EW" depart="130"/>
    <vehicle id="car_243" type="typeCar" route="WE" depart="131"/>
    <vehicle id="car_244" type="typeCar" route="EW" depart="131"/>
    <vehicle id="car_245" type="typeCar" route="WE" depart="132"/>
    <vehicle id="car_246" type="typeCar" route="EW" depart="132"/>
    <vehicle id="car_247" type="typeCar" route="WE" depart="133"/>
    <vehicle id="car_248" type="typeCar" route="EW" depart="133"/>
    <vehicle id="car_249" type="typeCar" route="WE" depart="134"/>
    <vehicle id="car_250" type="typeCar" route="WE" depart="135"/>
    <vehicle id="car_251" type="typeCar" route="EW" depart="136"/>
    <vehicle id="car_252" type="typeCar" route="WE" depart="137"/>
    <vehicle id="car_253" type="typeCar" route="EW" depart="138"/>
    <vehicle id="car_254" type="typeCar" route="WE" depart="139"/>
    <vehicle id="car_255" type="typeCar" route="EW" depart="139"/>
    <vehicle id="car_256" type="typeCar" route="WE" depart="140"/>
    <vehicle id="car_257" type="typeCar" route="EW" depart="140"/>
    <vehicle id="car_258" type="typeCar" route="WE" depart="141"/>
    <vehicle id="car_259" type="typeCar" route="EW" depart="141"/>
    <vehicle id="car_260" type="typeCar" route="WE" depart="142"/>
    <vehicle id="car_261" type="typeCar" route="EW" depart="142"/>
    <vehicle id="car_262" type="typeCar" route="EW" depart="143"/>
    <vehicle id="car_263" type="typeCar" route="WE" depart="144"/>
    <vehicle id="car_264" type="typeCar" route="EW" depart="144"/>
    <vehicle id="car_265" type="typeCar" route="EW" depart="145"/>
    <vehicle id="car_266" type="typeCar" route="EW" depart="146"/>
    <vehicle id="car_267" type="typeCar" route="WE" depart="147"/>
    <vehicle id="car_268" type="typeCar" route="EW" depart="147"/>
    <vehicle id="car_269" type="typeCar" route="EW" depart="148"/>
    <vehicle id="car_270" type="typeCar" route="WE" depart="149"/>
    <vehicle id="car_271" type="typeCar" route="EW" depart="149"/>
    <vehicle id="car_272" type="typeCar" route="WE" depart="150"/>
    <vehicle id="car_273" type="typeCar" route="EW" depart="150"/>
    <vehicle id="car_274" type="typeCar" route="WE" depart="151"/>
    <vehicle id="car_275" type="typeCar" route="EW" depart="151"/>
    <vehicle id="car_276" type="typeCar" route="WE" depart="152"/>
    <vehicle id="car_277" type="typeCar" route="EW" depart="152"/>
    <vehicle id="car_278" type="typeCar" route="WE" depart="153"/>
    <vehicle id="car_279" type="typeCar" route="WE" depart="154"/>
    <vehicle id="car_280" type="typeCar" route="EW" depart="154"/>
    <vehicle id="car_281" type="typeCar" route="WE" depart="155"/>
    <vehicle id="car_282" type="typeCar" route="EW" depart="155"/>
    <vehicle id="car_283" type="typeCar" route="WE" depart="156"/>
    <vehicle id="car_284" type="typeCar" route="WE" depart="157"/>
    <vehicle id="car_285" type="typeCar" route="SN" depart="158"/>
    <vehicle id="car_286" type="typeCar" route="WE" depart="158"/>
    <vehicle id="car_287" type="typeCar" route="EW" depart="158"/>
    <vehicle id="car_288" type="typeCar" route="SN" depart="159"/>
    <vehicle id="car_289" type="typeCar" route="WE" depart="159"/>
    <vehicle id="car_290" type="typeCar" route="EW" depart="159"/>
    <vehicle id="car_291" type="typeCar" route="WE" depart="160"/>
    <vehicle id="car_292" type="typeCar" route="EW" depart="160"/>
    <vehicle id="car_293" type="typeCar" route="WE" depart="161"/>
    <vehicle id="car_294" type="typeCar" route="EW" depart="161"/>
    <vehicle id="car_295" type="typeCar" route="WE" depart="162"/>
    <vehicle id="car_296" type="typeCar" route="EW" depart="162"/>
    <vehicle id="car_297" type="typeCar" route="WE" depart="163"/>
    <vehicle id="car_298" type="typeCar" route="EW" depart="163"/>
    <vehicle id="car_299" type="typeCar" route="WE" depart="164"/>
    <vehicle id="car_300" type="typeCar" route="EW" depart="164"/>
    <vehicle id="car_301" type="typeCar" route="WE" depart="165"/>
    <vehicle id="car_302" type="typeCar" route="EW" depart="165"/>
    <vehicle id="car_303" type="typeCar" route="EW" depart="166"/>
    <vehicle id="car_304" type="typeCar" route="WE" depart="167"/>
    <vehicle id="car_305" type="typeCar" route="EW" depart="167"/>
    <vehicle id="car_306" type="typeCar" route="WE" depart="168"/>
    <vehicle id="car_307" type="typeCar" route="EW" depart="168"/>
    <vehicle id="car_308" type="typeCar" route="WE" depart="169"/>
    <vehicle id="car_309" type="typeCar" route="EW" depart="169"/>
    <vehicle id="car_310" type="typeCar" route="WE" depart="170"/>
    <vehicle id="car_311" type="typeCar" route="WE" depart="171"/>
    <vehicle id="car_312" type="typeCar" route="EW" depart="171"/>
    <vehicle id="car_313" type="typeCar" route="WE" depart="172"/>
    <vehicle id="car_314" type="typeCar" route="EW" depart="172"/>
    <vehicle id="car_315" type="typeCar" route="WE" depart="173"/>
    <vehicle id="car_316" type="typeCar" route="EW" depart="173"/>
    <vehicle id="car_317" type="typeCar" route="WE" depart="174"/>
    <vehicle id="car_318" type="typeCar" route="EW" depart="174"/>
    <vehicle id="car_319" type="typeCar" route="WE" depart="175"/>
    <vehicle id="car_320" type="typeCar" route="EW" depart="175"/>
    <vehicle id="car_321" type="typeCar" route="WE" depart="176"/>
    <vehicle id="car_322" type="typeCar" route="EW" depart="176"/>
    <vehicle id="car_323" type="typeCar" route="WE" depart="177"/>
    <vehicle id="car_324" type="typeCar" route="NS" depart="178"/>
    <vehicle id="car_325" type="typeCar" route="EW" depart="178"/>
    <vehicle id="car_326" type="typeCar" route="WE" depart="179"/>
    <vehicle id="car_327" type="typeCar" route="EW" depart="179"/>
    <vehicle id="car_328" type="typeCar" route="WE" depart="180"/>
    <vehicle id="car_329" type="typeCar" route="EW" depart="180"/>
    <vehicle id="car_330" type="typeCar" route="WE" depart="181"/>
    <vehicle id="car_331" type="typeCar" route="EW" depart="181"/>
    <vehicle id="car_332" type="typeCar" route="NS" depart="182"/>
    <vehicle id="car_333" type="typeCar" route="WE" depart="182"/>
    <vehicle id="car_334" type="typeCar" route="EW" depart="182"/>
    <vehicle id="car_335" type="typeCar" route="EW" depart="183"/>
    <vehicle id="car_336" type="typeCar" route="WE" depart="184"/>
    <vehicle id="car_337" type="typeCar" route="EW" depart="184"/>
    <vehicle id="car_338" type="typeCar" route="WE" depart="185"/>
    <vehicle id="car_339" type="typeCar" route="EW" depart="185"/>
    <vehicle id="car_340" type="typeCar" route="WE" depart="186"/>
    <vehicle id="car_341" type="typeCar" route="EW" depart="186"/>
    <vehicle id="car_342" type="typeCar" route="WE" depart="187"/>
    <vehicle id="car_343" type="typeCar" route="EW" depart="187"/>
    <vehicle id="car_344" type="typeCar" route="WE" depart="188"/>
    <vehicle id="car_345" type="typeCar" route="EW" depart="188"/>
    <vehicle id="car_346" type="typeCar" route="WE" depart="189"/>
    <vehicle id="car_347" type="typeCar" route="EW" depart="189"/>
    <vehicle id="car_348" type="typeCar" route="WE" depart="190"/>
    <vehicle id="car_349" type="typeCar" route="EW" depart="190"/>
    <vehicle id="car_350" type="typeCar" route="WE" depart="191"/>
    <vehicle id="car_351" type="typeCar" route="EW" depart="191"/>
    <vehicle id="car_352" type="typeCar" route="WE" depart="192"/>
    <vehicle id="car_353" type="typeCar" route="EW" depart="192"/>
    <vehicle id="car_354" type="typeCar" route="WE" depart="193"/>
    <vehicle id="car_355" type="typeCar" route="EW" depart="193"/>
    <vehicle id="car_356" type="typeCar" route="WE" depart="194"/>
    <vehicle id="car_357" type="typeCar" route="EW" depart="194"/>
    <vehicle id="car_358" type="typeCar" route="WE" depart="195"/>
    <vehicle id="car_359" type="typeCar" route="EW" depart="196"/>
    <vehicle id="car_360" type="typeCar" route="WE" depart="197"/>
    <vehicle id="car_361" type="typeCar" route="EW" depart="197"/>
    <vehicle id="car_362" type="typeCar" route="SN" depart="199"/>
    <vehicle id="car_363" type="typeCar" route="WE" depart="199"/>
    <vehicle id="car_364" type="typeCar" route="EW" depart="199"/>
    <vehicle id="car_365" type="typeCar" route="WE" depart="200"/>
    <vehicle id="car_366" type="typeCar" route="EW" depart="200"/>
    <vehicle id="car_367" type="typeCar" route="WE" depart="201"/>
    <vehicle id="car_368" type="typeCar" route="WE" depart="202"/>
    <vehicle id="car_369" type="typeCar" route="EW" depart="202"/>
    <vehicle id="car_370" type="typeCar" route="WE" depart="203"/>
    <vehicle id="car_371" type="typeCar" route="EW" depart="203"/>
    <vehicle id="car_372" type="typeCar" route="WE" depart="204"/>
    <vehicle id="car_373" type="typeCar" route="WE" depart="205"/>
    <vehicle id="car_374" type="typeCar" route="EW" depart="205"/>
    <vehicle id="car_375" type="typeCar" route="WE" depart="206"/>
    <vehicle id="car_376" type="typeCar" route="EW" depart="206"/>
    <vehicle id="car_377" type="typeCar" route="WE" depart="207"/>
    <vehicle id="car_378" type="typeCar" route="EW" depart="207"/>
    <vehicle id="car_379" type="typeCar" route="EW" depart="208"/>
    <vehicle id="car_380" type="typeCar" route="SN" depart="209"/>
    <vehicle id="car_381" type="typeCar" route="WE" depart="209"/>
    <vehicle id="car_382" type="typeCar" route="EW" depart="209"/>
    <vehicle id="car_383" type="typeCar" route="WE" depart="210"/>
    <vehicle id="car_384" type="typeCar" route="EW" depart="210"/>
    <vehicle id="car_385" type="typeCar" route="WE" depart="211"/>
    <vehicle id="car_386" type="typeCar" route="EW" depart="211"/>
    <vehicle id="car_387" type="typeCar" route="EW" depart="212"/>
    <vehicle id="car_388" type="typeCar" route="SN" depart="213"/>
    <vehicle id="car_389" type="typeCar" route="WE" depart="213"/>
    <vehicle id="car_390" type="typeCar" route="EW" depart="213"/>
    <vehicle id="car_391" type="typeCar" route="NS" depart="214"/>
    <vehicle id="car_392" type="typeCar" route="WE" depart="214"/>
    <vehicle id="car_393" type="typeCar" route="EW" depart="214"/>
    <vehicle id="car_394" type="typeCar" route="WE" depart="215"/>
    <vehicle id="car_395" type="typeCar" route="EW" depart="215"/>
    <vehicle id="car_396" type="typeCar" route="NS" depart="216"/>
    <vehicle id="car_397" type="typeCar" route="EW" depart="216"/>
    <vehicle id="car_398" type="typeCar" route="WE" depart="218"/>
    <vehicle id="car_399" type="typeCar" route="WE" depart="219"/>
    <vehicle id="car_400" type="typeCar" route="EW" depart="220"/>
    <vehicle id="car_401" type="typeCar" route="WE" depart="221"/>
    <vehicle id="car_402" type="typeCar" route="EW" depart="221"/>
    <vehicle id="car_403" type="typeCar" route="EW" depart="222"/>
    <vehicle id="car_404" type="typeCar" route="WE" depart="223"/>
    <vehicle id="car_405" type="typeCar" route="EW" depart="223"/>
    <vehicle id="car_406" type="typeCar" route="WE" depart="224"/>
    <vehicle id="car_407" type="typeCar" route="EW" depart="224"/>
    <vehicle id="car_408" type="typeCar" route="NS" depart="225"/>
    <vehicle id="car_409" type="typeCar" route="WE" depart="225"/>
    <vehicle id="car_410" type="typeCar" route="EW" depart="225"/>
    <vehicle id="car_411" type="typeCar" route="EW" depart="226"/>
    <vehicle id="car_412" type="typeCar" route="WE" depart="227"/>
    <vehicle id="car_413" type="typeCar" route="EW" depart="227"/>
    <vehicle id="car_414" type="typeCar" route="WE" depart="228"/>
    <vehicle id="car_415" type="typeCar" route="EW" depart="228"/>
    <vehicle id="car_416" type="typeCar" route="WE" depart="229"/>
    <vehicle id="car_417" type="typeCar" route="EW" depart="229"/>
    <vehicle id="car_418" type="typeCar" route="WE" depart="230"/>
    <vehicle id="car_419" type="typeCar" route="EW" depart="230"/>
    <vehicle id="car_420" type="typeCar" route="WE" depart="231"/>
    <vehicle id="car_421" type="typeCar" route="EW" depart="231"/>
    <vehicle id="car_422" type="typeCar" route="EW" depart="232"/>
    <vehicle id="car_423" type="typeCar" route="EW" depart="233"/>
    <vehicle id="car_424" type="typeCar" route="EW" depart="234"/>
    <vehicle id="car_425" type="typeCar" route="NS" depart="235"/>
    <vehicle id="car_426" type="typeCar" route="WE" depart="235"/>
    <vehicle id="car_427" type="typeCar" route="EW" depart="235"/>
    <vehicle id="car_428" type="typeCar" route="WE" depart="236"/>
    <vehicle id="car_429" type="typeCar" route="EW" depart="236"/>
    <vehicle id="car_430" type="typeCar" route="WE" depart="237"/>
    <vehicle id="car_431" type="typeCar" route="EW" depart="237"/>
    <vehicle id="car_432" type="typeCar" route="WE" depart="238"/>
    <vehicle id="car_433" type="typeCar" route="EW" depart="238"/>
    <vehicle id="car_434" type="typeCar" route="EW" depart="239"/>
    <vehicle id="car_435" type="typeCar" route="WE" depart="240"/>
    <vehicle id="car_436" type="typeCar" route="EW" depart="240"/>
    <vehicle id="car_437" type="typeCar" route="WE" depart="241"/>
    <vehicle id="car_438" type="typeCar" route="EW" depart="241"/>
    <vehicle id="car_439" type="typeCar" route="WE" depart="242"/>
    <vehicle id="car_440" type="typeCar" route="EW" depart="242"/>
    <vehicle id="car_441" type="typeCar" route="WE" depart="243"/>
    <vehicle id="car_442" type="typeCar" route="WE" depart="245"/>
    <vehicle id="car_443" type="typeCar" route="EW" depart="245"/>
    <vehicle id="car_444" type="typeCar" route="WE" depart="246"/>
    <vehicle id="car_445" type="typeCar" route="EW" depart="246"/>
    <vehicle id="car_446" type="typeCar" route="WE" depart="247"/>