<?xml version="1.0" encoding="UTF-8"?>

<!-- generated on Thu Sep  6 15:18:59 2018 by Eclipse SUMO netconvert Version v0_32_0+2411-189ca3ff4b
<configuration xmlns:xsi="http://www.w3.org/2001/XMLSchema-instance" xsi:noNamespaceSchemaLocation="http://sumo.dlr.de/xsd/netconvertConfiguration.xsd">

    <input>
        <node-files value="cross.nod.xml"/>
        <edge-files value="cross.edg.xml"/>
    </input>

    <output>
        <output-file value="cross.net.xml"/>
    </output>

</configuration>
-->

<net version="0.27" junctionCornerDetail="5" xmlns:xsi="http://www.w3.org/2001/XMLSchema-instance" xsi:noNamespaceSchemaLocation="http://sumo.dlr.de/xsd/net_file.xsd">

    <location netOffset="0.00,400.00" convBoundary="0.00,0.00,400.00,400.00" origBoundary="0.00,-400.00,400.00,0.00" projParameter="!"/>

    <edge id=":A_0" function="internal">
        <lane id=":A_0_0" index="0" speed="13.89" length="9.03" shape="195.20,210.40 194.85,207.95 193.80,206.20 192.05,205.15 189.60,204.80"/>
    </edge>
    <edge id=":A_1" function="internal">
        <lane id=":A_1_0" index="0" speed="13.89" length="20.80" shape="195.20,210.40 195.20,189.60"/>
        <lane id=":A_1_1" index="1" speed="13.89" length="20.80" shape="198.40,210.40 198.40,189.60"/>
    </edge>
    <edge id=":A_3" function="internal">
        <lane id=":A_3_0" index="0" speed="13.89" length="6.96" shape="198.40,210.40 199.15,205.15 200.00,203.73"/>
    </edge>
    <edge id=":A_4" function="internal">
        <lane id=":A_4_0" index="0" speed="13.89" length="2.34" shape="198.40,210.40 199.20,209.20 200.00,208.80"/>
    </edge>
    <edge id=":A_20" function="internal">
        <lane id=":A_20_0" index="0" speed="13.89" length="12.40" shape="200.00,203.73 201.40,201.40 205.15,199.15 210.40,198.40"/>
    </edge>
    <edge id=":A_21" function="internal">
        <lane id=":A_21_0" index="0" speed="13.89" length="2.34" shape="200.00,208.80 200.80,209.20 201.60,210.40"/>
    </edge>
    <edge id=":A_5" function="internal">
        <lane id=":A_5_0" index="0" speed="13.89" length="9.03" shape="210.40,204.80 207.95,205.15 206.20,206.20 205.15,207.95 204.80,210.40"/>
    </edge>
    <edge id=":A_6" function="internal">
        <lane id=":A_6_0" index="0" speed="13.89" length="20.80" shape="210.40,204.80 189.60,204.80"/>
        <lane id=":A_6_1" index="1" speed="13.89" length="20.80" shape="210.40,201.60 189.60,201.60"/>
    </edge>
    <edge id=":A_8" function="internal">
        <lane id=":A_8_0" index="0" speed="13.89" length="6.96" shape="210.40,201.60 205.15,200.85 203.73,200.00"/>
    </edge>
    <edge id=":A_9" function="internal">
        <lane id=":A_9_0" index="0" speed="13.89" length="2.34" shape="210.40,201.60 209.20,200.80 208.80,200.00"/>
    </edge>
    <edge id=":A_22" function="internal">
        <lane id=":A_22_0" index="0" speed="13.89" length="12.40" shape="203.73,200.00 201.40,198.60 199.15,194.85 198.40,189.60"/>
    </edge>
    <edge id=":A_23" function="internal">
        <lane id=":A_23_0" index="0" speed="13.89" length="2.34" shape="208.80,200.00 209.20,199.20 210.40,198.40"/>
    </edge>
    <edge id=":A_10" function="internal">
        <lane id=":A_10_0" index="0" speed="13.89" length="9.03" shape="204.80,189.60 205.15,192.05 206.20,193.80 207.95,194.85 210.40,195.20"/>
    </edge>
    <edge id=":A_11" function="internal">
        <lane id=":A_11_0" index="0" speed="13.89" length="20.80" shape="204.80,189.60 204.80,210.40"/>
        <lane id=":A_11_1" index="1" speed="13.89" length="20.80" shape="201.60,189.60 201.60,210.40"/>
    </edge>
    <edge id=":A_13" function="internal">
        <lane id=":A_13_0" index="0" speed="13.89" length="6.96" shape="201.60,189.60 200.85,194.85 200.00,196.27"/>
    </edge>
    <edge id=":A_14" function="internal">
        <lane id=":A_14_0" index="0" speed="13.89" length="2.34" shape="201.60,189.60 200.80,190.80 200.00,191.20"/>
    </edge>
    <edge id=":A_24" function="internal">
        <lane id=":A_24_0" index="0" speed="13.89" length="12.40" shape="200.00,196.27 198.60,198.60 194.85,200.85 189.60,201.60"/>
    </edge>
    <edge id=":A_25" function="internal">
        <lane id=":A_25_0" index="0" speed="13.89" length="2.34" shape="200.00,191.20 199.20,190.80 198.40,189.60"/>
    </edge>
    <edge id=":A_15" function="internal">
        <lane id=":A_15_0" index="0" speed="13.89" length="9.03" shape="189.60,195.20 192.05,194.85 193.80,193.80 194.85,192.05 195.20,189.60"/>
    </edge>
    <edge id=":A_16" function="internal">
        <lane id=":A_16_0" index="0" speed="13.89" length="20.80" shape="189.60,195.20 210.40,195.20"/>
        <lane id=":A_16_1" index="1" speed="13.89" length="20.80" shape="189.60,198.40 210.40,198.40"/>
    </edge>
    <edge id=":A_18" function="internal">
        <lane id=":A_18_0" index="0" speed="13.89" length="6.96" shape="189.60,198.40 194.85,199.15 196.27,200.00"/>
    </edge>
    <edge id=":A_19" function="internal">
        <lane id=":A_19_0" index="0" speed="13.89" length="2.34" shape="189.60,198.40 190.80,199.20 191.20,200.00"/>
    </edge>
    <edge id=":A_26" function="internal">
        <lane id=":A_26_0" index="0" speed="13.89" length="12.40" shape="196.27,200.00 198.60,201.40 200.85,205.15 201.60,210.40"/>
    </edge>
    <edge id=":A_27" function="internal">
        <lane id=":A_27_0" index="0" speed="13.89" length="2.34" shape="191.20,200.00 190.80,200.80 189.60,201.60"/>
    </edge>
    <edge id=":e_0" function="internal">
        <lane id=":e_0_0" index="0" speed="13.89" length="4.67" shape="400.00,198.40 401.20,199.20 401.60,200.00 401.20,200.80 400.00,201.60"/>
    </edge>
    <edge id=":n_0" function="internal">
        <lane id=":n_0_0" index="0" speed="13.89" length="4.67" shape="201.60,400.00 200.80,401.20 200.00,401.60 199.20,401.20 198.40,400.00"/>
    </edge>
    <edge id=":s_0" function="internal">
        <lane id=":s_0_0" index="0" speed="13.89" length="4.67" shape="198.40,0.00 199.20,-1.20 200.00,-1.60 200.80,-1.20 201.60,0.00"/>
    </edge>
    <edge id=":w_0" function="internal">
        <lane id=":w_0_0" index="0" speed="13.89" length="4.67" shape="0.00,201.60 -1.20,200.80 -1.60,200.00 -1.20,199.20 0.00,198.40"/>
    </edge>

    <edge id="A2e" from="A" to="e" priority="-1">
        <lane id="A2e_0" index="0" speed="13.89" length="189.60" shape="210.40,195.20 400.00,195.20"/>
        <lane id="A2e_1" index="1" speed="13.89" length="189.60" shape="210.40,198.40 400.00,198.40"/>
    </edge>
    <edge id="A2n" from="A" to="n" priority="-1">
        <lane id="A2n_0" index="0" speed="13.89" length="189.60" shape="204.80,210.40 204.80,400.00"/>
        <lane id="A2n_1" index="1" speed="13.89" length="189.60" shape="201.60,210.40 201.60,400.00"/>
    </edge>
    <edge id="A2s" from="A" to="s" priority="-1">
        <lane id="A2s_0" index="0" speed="13.89" length="189.60" shape="195.20,189.60 195.20,0.00"/>
        <lane id="A2s_1" index="1" speed="13.89" length="189.60" shape="198.40,189.60 198.40,0.00"/>
    </edge>
    <edge id="A2w" from="A" to="w" priority="-1">
        <lane id="A2w_0" index="0" speed="13.89" length="189.60" shape="189.60,204.80 0.00,204.80"/>
        <lane id="A2w_1" index="1" speed="13.89" length="189.60" shape="189.60,201.60 0.00,201.60"/>
    </edge>
    <edge id="e2A" from="e" to="A" priority="-1">
        <lane id="e2A_0" index="0" speed="13.89" length="189.60" shape="400.00,204.80 210.40,204.80"/>
        <lane id="e2A_1" index="1" speed="13.89" length="189.60" shape="400.00,201.60 210.40,201.60"/>
    </edge>
    <edge id="n2A" from="n" to="A" priority="-1">
        <lane id="n2A_0" index="0" speed="13.89" length="189.60" shape="195.20,400.00 195.20,210.40"/>
        <lane id="n2A_1" index="1" speed="13.89" length="189.60" shape="198.40,400.00 198.40,210.40"/>
    </edge>
    <edge id="s2A" from="s" to="A" priority="-1">
        <lane id="s2A_0" index="0" speed="13.89" length="189.60" shape="204.80,0.00 204.80,189.60"/>
        <lane id="s2A_1" index="1" speed="13.89" length="189.60" shape="201.60,0.00 201.60,189.60"/>
    </edge>
    <edge id="w2A" from="w" to="A" priority="-1">
        <lane id="w2A_0" index="0" speed="13.89" length="189.60" shape="0.00,195.20 189.60,195.20"/>
        <lane id="w2A_1" index="1" speed="13.89" length="189.60" shape="0.00,198.40 189.60,198.40"/>
    </edge>

    <tlLogic id="A" type="static" programID="0" offset="0">
        <phase duration="42" state="GGGggrrrrrGGGggrrrrr"/>
        <phase duration="3"  state="yyyyyrrrrryyyyyrrrrr"/>
        <phase duration="42" state="rrrrrGGGggrrrrrGGGgg"/>
        <phase duration="3"  state="rrrrryyyyyrrrrryyyyy"/>
    </tlLogic>

    <junction id="A" type="traffic_light" x="200.00" y="200.00" incLanes="n2A_0 n2A_1 e2A_0 e2A_1 s2A_0 s2A_1 w2A_0 w2A_1" intLanes=":A_0_0 :A_1_0 :A_1_1 :A_20_0 :A_21_0 :A_5_0 :A_6_0 :A_6_1 :A_22_0 :A_23_0 :A_10_0 :A_11_0 :A_11_1 :A_24_0 :A_25_0 :A_15_0 :A_16_0 :A_16_1 :A_26_0 :A_27_0" shape="193.60,210.40 206.40,210.40 206.84,208.18 207.40,207.40 208.18,206.84 209.18,206.51 210.40,206.40 210.40,193.60 208.18,193.16 207.40,192.60 206.84,191.82 206.51,190.82 206.40,189.60 193.60,189.60 193.16,191.82 192.60,192.60 191.82,193.16 190.82,193.49 189.60,193.60 189.60,206.40 191.82,206.84 192.60,207.40 193.16,208.18 193.49,209.18">
        <request index="0"  response="00000000000000000000" foes="10000010000011000000" cont="0"/>
        <request index="1"  response="01000000000100000000" foes="01111110000111000000" cont="0"/>
        <request index="2"  response="01000000000100000000" foes="01111110000111000000" cont="0"/>
        <request index="3"  response="01000001110100000000" foes="01110001111111000000" cont="1"/>
        <request index="4"  response="01000001100000100000" foes="01000001100000100000" cont="1"/>
        <request index="5"  response="00000001100000000000" foes="01000001100000010000" cont="0"/>
        <request index="6"  response="00000011100000001111" foes="11000011100000001111" cont="0"/>
        <request index="7"  response="00000011100000001111" foes="11000011100000001111" cont="0"/>
        <request index="8"  response="00111011100000001110" foes="00111111100000001110" cont="1"/>
        <request index="9"  response="00110000010000001000" foes="00110000010000001000" cont="1"/>
        <request index="10" response="00000000000000000000" foes="00110000001000001000" cont="0"/>
        <request index="11" response="01000000000100000000" foes="01110000000111111000" cont="0"/>
        <request index="12" response="01000000000100000000" foes="01110000000111111000" cont="0"/>
        <request index="13" response="01000000000100000111" foes="11110000000111000111" cont="1"/>
        <request index="14" response="00001000000100000110" foes="00001000000100000110" cont="1"/>
        <request index="15" response="00000000000000000110" foes="00000100000100000110" cont="0"/>
        <request index="16" response="00000011110000001110" foes="00000011111100001110" cont="0"/>
        <request index="17" response="00000011110000001110" foes="00000011111100001110" cont="0"/>
        <request index="18" response="00000011100011101110" foes="00000011100011111110" cont="1"/>
        <request index="19" response="00000010000011000001" foes="00000010000011000001" cont="1"/>
    </junction>
    <junction id="e" type="priority" x="400.00" y="200.00" incLanes="A2e_0 A2e_1" intLanes=":e_0_0" shape="400.00,200.00 400.00,193.60 400.00,200.00">
        <request index="0" response="0" foes="0" cont="0"/>
    </junction>
    <junction id="n" type="priority" x="200.00" y="400.00" incLanes="A2n_0 A2n_1" intLanes=":n_0_0" shape="200.00,400.00 206.40,400.00 200.00,400.00">
        <request index="0" response="0" foes="0" cont="0"/>
    </junction>
    <junction id="s" type="priority" x="200.00" y="0.00" incLanes="A2s_0 A2s_1" intLanes=":s_0_0" shape="200.00,0.00 193.60,0.00 200.00,0.00">
        <request index="0" response="0" foes="0" cont="0"/>
    </junction>
    <junction id="w" type="priority" x="0.00" y="200.00" incLanes="A2w_0 A2w_1" intLanes=":w_0_0" shape="0.00,200.00 0.00,206.40 0.00,200.00">
        <request index="0" response="0" foes="0" cont="0"/>
    </junction>

    <junction id=":A_20_0" type="internal" x="200.00" y="203.73" incLanes=":A_3_0 s2A_0 s2A_1" intLanes=":A_6_0 :A_6_1 :A_8_0 :A_9_0 :A_10_0 :A_11_0 :A_11_1 :A_16_0 :A_16_1 :A_18_0"/>
    <junction id=":A_21_0" type="internal" x="200.00" y="208.80" incLanes=":A_4_0 e2A_0 s2A_0 s2A_1 w2A_1" intLanes=":A_5_0 :A_11_0 :A_11_1 :A_18_0"/>
    <junction id=":A_22_0" type="internal" x="203.73" y="200.00" incLanes=":A_8_0 w2A_0 w2A_1" intLanes=":A_1_0 :A_1_1 :A_3_0 :A_11_0 :A_11_1 :A_13_0 :A_14_0 :A_15_0 :A_16_0 :A_16_1"/>
    <junction id=":A_23_0" type="internal" x="208.80" y="200.00" incLanes=":A_9_0 n2A_1 s2A_0 w2A_0 w2A_1" intLanes=":A_3_0 :A_10_0 :A_16_0 :A_16_1"/>
    <junction id=":A_24_0" type="internal" x="200.00" y="196.27" incLanes=":A_13_0 n2A_0 n2A_1" intLanes=":A_0_0 :A_1_0 :A_1_1 :A_6_0 :A_6_1 :A_8_0 :A_16_0 :A_16_1 :A_18_0 :A_19_0"/>
    <junction id=":A_25_0" type="internal" x="200.00" y="191.20" incLanes=":A_14_0 e2A_1 n2A_0 n2A_1 w2A_0" intLanes=":A_1_0 :A_1_1 :A_8_0 :A_15_0"/>
    <junction id=":A_26_0" type="internal" x="196.27" y="200.00" incLanes=":A_18_0 e2A_0 e2A_1" intLanes=":A_1_0 :A_1_1 :A_3_0 :A_4_0 :A_5_0 :A_6_0 :A_6_1 :A_11_0 :A_11_1 :A_13_0"/>
    <junction id=":A_27_0" type="internal" x="191.20" y="200.00" incLanes=":A_19_0 e2A_0 e2A_1 n2A_0 s2A_1" intLanes=":A_0_0 :A_6_0 :A_6_1 :A_13_0"/>

    <connection from="A2e" to="e2A" fromLane="1" toLane="1" via=":e_0_0" dir="t" state="M"/>
    <connection from="A2n" to="n2A" fromLane="1" toLane="1" via=":n_0_0" dir="t" state="M"/>
    <connection from="A2s" to="s2A" fromLane="1" toLane="1" via=":s_0_0" dir="t" state="M"/>
    <connection from="A2w" to="w2A" fromLane="1" toLane="1" via=":w_0_0" dir="t" state="M"/>
    <connection from="e2A" to="A2n" fromLane="0" toLane="0" via=":A_5_0" tl="A" linkIndex="5" dir="r" state="o"/>
    <connection from="e2A" to="A2w" fromLane="0" toLane="0" via=":A_6_0" tl="A" linkIndex="6" dir="s" state="o"/>
    <connection from="e2A" to="A2w" fromLane="1" toLane="1" via=":A_6_1" tl="A" linkIndex="7" dir="s" state="o"/>
    <connection from="e2A" to="A2s" fromLane="1" toLane="1" via=":A_8_0" tl="A" linkIndex="8" dir="l" state="o"/>
    <connection from="e2A" to="A2e" fromLane="1" toLane="1" via=":A_9_0" tl="A" linkIndex="9" dir="t" state="o"/>
    <connection from="n2A" to="A2w" fromLane="0" toLane="0" via=":A_0_0" tl="A" linkIndex="0" dir="r" state="O"/>
    <connection from="n2A" to="A2s" fromLane="0" toLane="0" via=":A_1_0" tl="A" linkIndex="1" dir="s" state="O"/>
    <connection from="n2A" to="A2s" fromLane="1" toLane="1" via=":A_1_1" tl="A" linkIndex="2" dir="s" state="O"/>
    <connection from="n2A" to="A2e" fromLane="1" toLane="1" via=":A_3_0" tl="A" linkIndex="3" dir="l" state="o"/>
    <connection from="n2A" to="A2n" fromLane="1" toLane="1" via=":A_4_0" tl="A" linkIndex="4" dir="t" state="o"/>
    <connection from="s2A" to="A2e" fromLane="0" toLane="0" via=":A_10_0" tl="A" linkIndex="10" dir="r" state="O"/>
    <connection from="s2A" to="A2n" fromLane="0" toLane="0" via=":A_11_0" tl="A" linkIndex="11" dir="s" state="O"/>
    <connection from="s2A" to="A2n" fromLane="1" toLane="1" via=":A_11_1" tl="A" linkIndex="12" dir="s" state="O"/>
    <connection from="s2A" to="A2w" fromLane="1" toLane="1" via=":A_13_0" tl="A" linkIndex="13" dir="l" state="o"/>
    <connection from="s2A" to="A2s" fromLane="1" toLane="1" via=":A_14_0" tl="A" linkIndex="14" dir="t" state="o"/>
    <connection from="w2A" to="A2s" fromLane="0" toLane="0" via=":A_15_0" tl="A" linkIndex="15" dir="r" state="o"/>
    <connection from="w2A" to="A2e" fromLane="0" toLane="0" via=":A_16_0" tl="A" linkIndex="16" dir="s" state="o"/>
    <connection from="w2A" to="A2e" fromLane="1" toLane="1" via=":A_16_1" tl="A" linkIndex="17" dir="s" state="o"/>
    <connection from="w2A" to="A2n" fromLane="1" toLane="1" via=":A_18_0" tl="A" linkIndex="18" dir="l" state="o"/>
    <connection from="w2A" to="A2w" fromLane="1" toLane="1" via=":A_19_0" tl="A" linkIndex="19" dir="t" state="o"/>

    <connection from=":A_0" to="A2w" fromLane="0" toLane="0" dir="r" state="M"/>
    <connection from=":A_1" to="A2s" fromLane="0" toLane="0" dir="s" state="M"/>
    <connection from=":A_1" to="A2s" fromLane="1" toLane="1" dir="s" state="M"/>
    <connection from=":A_3" to="A2e" fromLane="0" toLane="1" via=":A_20_0" dir="l" state="m"/>
    <connection from=":A_20" to="A2e" fromLane="0" toLane="1" dir="l" state="M"/>
    <connection from=":A_4" to="A2n" fromLane="0" toLane="1" via=":A_21_0" dir="t" state="m"/>
    <connection from=":A_21" to="A2n" fromLane="0" toLane="1" dir="t" state="M"/>
    <connection from=":A_5" to="A2n" fromLane="0" toLane="0" dir="r" state="M"/>
    <connection from=":A_6" to="A2w" fromLane="0" toLane="0" dir="s" state="M"/>
    <connection from=":A_6" to="A2w" fromLane="1" toLane="1" dir="s" state="M"/>
    <connection from=":A_8" to="A2s" fromLane="0" toLane="1" via=":A_22_0" dir="l" state="m"/>
    <connection from=":A_22" to="A2s" fromLane="0" toLane="1" dir="l" state="M"/>
    <connection from=":A_9" to="A2e" fromLane="0" toLane="1" via=":A_23_0" dir="t" state="m"/>
    <connection from=":A_23" to="A2e" fromLane="0" toLane="1" dir="t" state="M"/>
    <connection from=":A_10" to="A2e" fromLane="0" toLane="0" dir="r" state="M"/>
    <connection from=":A_11" to="A2n" fromLane="0" toLane="0" dir="s" state="M"/>
    <connection from=":A_11" to="A2n" fromLane="1" toLane="1" dir="s" state="M"/>
    <connection from=":A_13" to="A2w" fromLane="0" toLane="1" via=":A_24_0" dir="l" state="m"/>
    <connection from=":A_24" to="A2w" fromLane="0" toLane="1" dir="l" state="M"/>
    <connection from=":A_14" to="A2s" fromLane="0" toLane="1" via=":A_25_0" dir="t" state="m"/>
    <connection from=":A_25" to="A2s" fromLane="0" toLane="1" dir="t" state="M"/>
    <connection from=":A_15" to="A2s" fromLane="0" toLane="0" dir="r" state="M"/>
    <connection from=":A_16" to="A2e" fromLane="0" toLane="0" dir="s" state="M"/>
    <connection from=":A_16" to="A2e" fromLane="1" toLane="1" dir="s" state="M"/>
    <connection from=":A_18" to="A2n" fromLane="0" toLane="1" via=":A_26_0" dir="l" state="m"/>
    <connection from=":A_26" to="A2n" fromLane="0" toLane="1" dir="l" state="M"/>
    <connection from=":A_19" to="A2w" fromLane="0" toLane="1" via=":A_27_0" dir="t" state="m"/>
    <connection from=":A_27" to="A2w" fromLane="0" toLane="1" dir="t" state="M"/>
    <connection from=":e_0" to="e2A" fromLane="0" toLane="1" dir="t" state="M"/>
    <connection from=":n_0" to="n2A" fromLane="0" toLane="1" dir="t" state="M"/>
    <connection from=":s_0" to="s2A" fromLane="0" toLane="1" dir="t" state="M"/>
    <connection from=":w_0" to="w2A" fromLane="0" toLane="1" dir="t" state="M"/>

</net>
