<?xml version="1.0" encoding="iso-8859-1"?>
<connections xmlns:xsi="http://www.w3.org/2001/XMLSchema-instance" xsi:noNamespaceSchemaLocation="http://sumo.dlr.de/xsd/connections_file.xsd">
<!-- 
	<connection from="1i" to="7o"/>
	<connection from="7i" to="1o"/>
	<connection from="3i" to="4o"/>
	<connection from="4i" to="3o"/>
	<connection from="2i" to="5o"/>
	<connection from="5i" to="2o"/>
 -->
<!-- 
 	<connection from="A2C" to="C2D"/>
 	<connection from="C2D" to="A2C"/>
 -->
</connections>